@<TRIPOS>MOLECULE
*****
 46 46 0 0 0
SMALL
GASTEIGER

@<TRIPOS>ATOM
      1 C           0.9469   -0.1131    0.0059 C.3     1  UNL1       -0.0463
      2 C           2.4780   -0.0869    0.0511 C.3     1  UNL1        0.0244
      3 C           2.9621    0.4559    1.4087 C.3     1  UNL1       -0.0094
      4 C           2.5026    1.8579    1.6770 C.ar    1  UNL1       -0.0456
      5 C           3.1128    2.9416    1.0337 C.ar    1  UNL1       -0.0585
      6 C           2.7526    4.2409    1.3775 C.ar    1  UNL1       -0.0615
      7 C           1.7204    4.4590    2.2891 C.ar    1  UNL1       -0.0617
      8 C           1.0679    3.3811    2.8840 C.ar    1  UNL1       -0.0615
      9 C           1.4640    2.0827    2.5866 C.ar    1  UNL1       -0.0585
     10 N           3.0240   -1.4324   -0.2049 N.am    1  UNL1       -0.3078
     11 C           4.3912   -1.6252   -0.2339 C.2     1  UNL1        0.2614
     12 O           5.2075   -0.7053   -0.1710 O.2     1  UNL1       -0.2696
     13 C           4.8606   -3.0687   -0.4438 C.3     1  UNL1        0.0532
     14 N           4.3531   -3.5792   -1.7623 N.4     1  UNL1        0.2273
     15 C           6.3988   -3.1272   -0.4485 C.3     1  UNL1       -0.0009
     16 C           6.9517   -4.5311   -0.6683 C.3     1  UNL1       -0.0427
     17 C           8.4777   -4.5368   -0.6666 C.3     1  UNL1       -0.0124
     18 C           8.9867   -5.9504   -0.9055 C.3     1  UNL1       -0.0354
     19 N          10.4592   -5.9440   -0.9092 N.4     1  UNL1        0.2185
     20 H           0.5271    0.8905    0.1337 H       1  UNL1        0.0248
     21 H           0.5445   -0.7471    0.8047 H       1  UNL1        0.0248
     22 H           0.5805   -0.4969   -0.9497 H       1  UNL1        0.0248
     23 H           2.8457    0.5541   -0.7603 H       1  UNL1        0.0499
     24 H           4.0550    0.4628    1.4819 H       1  UNL1        0.0331
     25 H           2.6357   -0.2161    2.2134 H       1  UNL1        0.0331
     26 H           3.8807    2.7836    0.2791 H       1  UNL1        0.0620
     27 H           3.2854    5.0855    0.9484 H       1  UNL1        0.0618
     28 H           1.4224    5.4741    2.5370 H       1  UNL1        0.0618
     29 H           0.2647    3.5519    3.5955 H       1  UNL1        0.0618
     30 H           0.9562    1.2480    3.0638 H       1  UNL1        0.0620
     31 H           2.3580   -2.1940   -0.1628 H       1  UNL1        0.1492
     32 H           4.4486   -3.7170    0.3376 H       1  UNL1        0.0948
     33 H           4.6934   -2.9742   -2.5248 H       1  UNL1        0.2002
     34 H           3.3270   -3.5429   -1.8035 H       1  UNL1        0.2002
     35 H           4.6280   -4.5463   -1.9609 H       1  UNL1        0.2002
     36 H           6.7790   -2.7393    0.5073 H       1  UNL1        0.0325
     37 H           6.7954   -2.4573   -1.2244 H       1  UNL1        0.0325
     38 H           6.6134   -4.9257   -1.6316 H       1  UNL1        0.0269
     39 H           6.5724   -5.1986    0.1139 H       1  UNL1        0.0269
     40 H           8.8513   -4.1519    0.2898 H       1  UNL1        0.0317
     41 H           8.8480   -3.8658   -1.4525 H       1  UNL1        0.0317
     42 H           8.6586   -6.3348   -1.8769 H       1  UNL1        0.0813
     43 H           8.6607   -6.6330   -0.1149 H       1  UNL1        0.0813
     44 H          10.8473   -5.3430   -1.6497 H       1  UNL1        0.1994
     45 H          10.8346   -6.8904   -1.0654 H       1  UNL1        0.1994
     46 H          10.8463   -5.6155   -0.0132 H       1  UNL1        0.1994
@<TRIPOS>UNITY_ATOM_ATTR
14 1
charge 1
19 1
charge 1
@<TRIPOS>BOND
     1     1     2    1
     2     2     3    1
     3     3     4    1
     4     4     5   ar
     5     5     6   ar
     6     6     7   ar
     7     7     8   ar
     8     8     9   ar
     9     4     9   ar
    10     2    10    1
    11    10    11   am
    12    11    12    2
    13    11    13    1
    14    13    14    1
    15    13    15    1
    16    15    16    1
    17    16    17    1
    18    17    18    1
    19    18    19    1
    20     1    20    1
    21     1    21    1
    22     1    22    1
    23     2    23    1
    24     3    24    1
    25     3    25    1
    26     5    26    1
    27     6    27    1
    28     7    28    1
    29     8    29    1
    30     9    30    1
    31    10    31    1
    32    13    32    1
    33    14    33    1
    34    14    34    1
    35    14    35    1
    36    15    36    1
    37    15    37    1
    38    16    38    1
    39    16    39    1
    40    17    40    1
    41    17    41    1
    42    18    42    1
    43    18    43    1
    44    19    44    1
    45    19    45    1
    46    19    46    1
