
     RDKit          3D

 20 20  0  0  0  0  0  0  0  0999 V2000
   -2.1742   -1.5980    0.8441 C   0  0  0  0  0  0  0  0  0  0  0  0
   -1.1969   -0.7811    0.3186 C   0  0  0  0  0  0  0  0  0  0  0  0
   -1.8905    0.2508   -0.2670 N   0  0  0  0  0  0  0  0  0  0  0  0
   -3.2198    0.0262   -0.0662 C   0  0  0  0  0  0  0  0  0  0  0  0
   -3.4233   -1.0866    0.6007 N   0  0  0  0  0  0  0  0  0  0  0  0
    0.2938   -0.8804    0.2996 C   0  0  0  0  0  0  0  0  0  0  0  0
    1.0093    0.4744    0.4599 C   0  0  0  0  0  0  0  0  0  0  0  0
    2.5196    0.2480    0.6174 C   0  0  0  0  0  0  0  0  0  0  0  0
    3.0680   -0.6818    1.1848 O   0  0  0  0  0  0  0  0  0  0  0  0
    3.2635    1.2421    0.0773 O   0  0  0  0  0  0  0  0  0  0  0  0
    0.7316    1.3856   -0.6976 N   0  0  0  0  0  0  0  0  0  0  0  0
   -2.0463   -2.5273    1.3846 H   0  0  0  0  0  0  0  0  0  0  0  0
   -1.4664    1.0456   -0.7343 H   0  0  0  0  0  0  0  0  0  0  0  0
   -3.9850    0.7017   -0.4237 H   0  0  0  0  0  0  0  0  0  0  0  0
    0.6065   -1.3633   -0.6357 H   0  0  0  0  0  0  0  0  0  0  0  0
    0.6042   -1.5550    1.1082 H   0  0  0  0  0  0  0  0  0  0  0  0
    0.6664    0.9806    1.3702 H   0  0  0  0  0  0  0  0  0  0  0  0
    4.1873    0.9805    0.2812 H   0  0  0  0  0  0  0  0  0  0  0  0
    1.1076    0.9388   -1.5381 H   0  0  0  0  0  0  0  0  0  0  0  0
    1.3447    2.1994   -0.5696 H   0  0  0  0  0  0  0  0  0  0  0  0
  1  2  2  0
  2  3  1  0
  3  4  1  0
  4  5  2  0
  2  6  1  0
  6  7  1  0
  7  8  1  0
  8  9  2  0
  8 10  1  0
  7 11  1  0
  5  1  1  0
  1 12  1  0
  3 13  1  0
  4 14  1  0
  6 15  1  0
  6 16  1  0
  7 17  1  0
 10 18  1  0
 11 19  1  0
 11 20  1  0
M  END
$$$$
