@<TRIPOS>MOLECULE
*****
 45 45 0 0 0
SMALL
GASTEIGER

@<TRIPOS>ATOM
      1 C           1.0917   -0.0440   -0.1721 C.3     1  UNL1       -0.0788
      2 C           2.6321   -0.0655   -0.1542 C.3     1  UNL1       -0.1205
      3 C           3.0746   -0.1506    1.3333 C.3     1  UNL1       -0.0417
      4 C           2.6501    1.0136    2.2054 C.ar    1  UNL1       -0.0485
      5 C           2.8026    2.3357    1.7639 C.ar    1  UNL1       -0.0586
      6 C           2.6310    3.4011    2.6419 C.ar    1  UNL1       -0.0615
      7 C           2.2194    3.1609    3.9490 C.ar    1  UNL1       -0.0617
      8 C           2.0015    1.8538    4.3836 C.ar    1  UNL1       -0.0615
      9 C           2.2209    0.7827    3.5176 C.ar    1  UNL1       -0.0586
     10 N           3.1635   -1.1926   -0.9852 N.am    1  UNL1       -0.6353
     11 C           4.5003   -1.2337   -1.0406 C.2     1  UNL1        0.0949
     12 O           5.3209   -0.4325   -0.5881 O.2     1  UNL1       -0.3126
     13 C           4.9840   -2.4204   -1.8682 C.3     1  UNL1        0.0172
     14 N           4.4605   -2.2580   -3.2554 N.4     1  UNL1        0.2250
     15 C           6.5184   -2.4643   -1.9164 C.3     1  UNL1       -0.0040
     16 C           7.0628   -3.6122   -2.7588 C.3     1  UNL1       -0.0428
     17 C           8.5875   -3.6192   -2.7620 C.3     1  UNL1       -0.0124
     18 C           9.0899   -4.7675   -3.6198 C.3     1  UNL1       -0.0354
     19 N          10.5642   -4.7611   -3.6203 N.4     1  UNL1        0.2185
     20 H           0.6976    0.7925    0.4209 H       1  UNL1        0.0218
     21 H           0.6749   -0.9604    0.2608 H       1  UNL1        0.0218
     22 H           0.6973    0.0784   -1.1836 H       1  UNL1        0.0218
     23 H           2.9667    0.8856   -0.5885 H       1  UNL1        0.0091
     24 H           4.1657   -0.1840    1.4246 H       1  UNL1        0.0301
     25 H           2.7146   -1.0957    1.7622 H       1  UNL1        0.0301
     26 H           3.0761    2.5463    0.7340 H       1  UNL1        0.0620
     27 H           2.8451    4.4110    2.3057 H       1  UNL1        0.0618
     28 H           2.0700    3.9945    4.6278 H       1  UNL1        0.0618
     29 H           1.6909    1.6659    5.4070 H       1  UNL1        0.0618
     30 H           2.0715   -0.2341    3.8722 H       1  UNL1        0.0620
     31 H           4.5832   -3.3618   -1.4751 H       1  UNL1        0.0916
     32 H           4.7680   -1.3480   -3.6149 H       1  UNL1        0.2001
     33 H           3.4380   -2.1686   -3.1411 H       1  UNL1        0.2001
     34 H           4.6798   -3.0217   -3.8904 H       1  UNL1        0.2001
     35 H           6.9046   -2.5571   -0.8919 H       1  UNL1        0.0324
     36 H           6.9113   -1.5144   -2.3049 H       1  UNL1        0.0324
     37 H           6.7198   -3.5215   -3.7949 H       1  UNL1        0.0269
     38 H           6.6844   -4.5643   -2.3688 H       1  UNL1        0.0269
     39 H           8.9636   -3.7151   -1.7363 H       1  UNL1        0.0317
     40 H           8.9598   -2.6644   -3.1555 H       1  UNL1        0.0317
     41 H           8.7642   -4.6664   -4.6602 H       1  UNL1        0.0813
     42 H           8.7662   -5.7365   -3.2282 H       1  UNL1        0.0813
     43 H          10.9436   -3.8834   -4.0010 H       1  UNL1        0.1994
     44 H          10.9386   -5.5308   -4.1908 H       1  UNL1        0.1994
     45 H          10.9426   -4.8732   -2.6696 H       1  UNL1        0.1994
@<TRIPOS>UNITY_ATOM_ATTR
10 1
charge -1
14 1
charge 1
19 1
charge 1
@<TRIPOS>BOND
     1     1     2    1
     2     2     3    1
     3     3     4    1
     4     4     5   ar
     5     5     6   ar
     6     6     7   ar
     7     7     8   ar
     8     8     9   ar
     9     4     9   ar
    10     2    10    1
    11    10    11    1
    12    11    12    2
    13    11    13    1
    14    13    14    1
    15    13    15    1
    16    15    16    1
    17    16    17    1
    18    17    18    1
    19    18    19    1
    20     1    20    1
    21     1    21    1
    22     1    22    1
    23     2    23    1
    24     3    24    1
    25     3    25    1
    26     5    26    1
    27     6    27    1
    28     7    28    1
    29     8    29    1
    30     9    30    1
    31    13    31    1
    32    14    32    1
    33    14    33    1
    34    14    34    1
    35    15    35    1
    36    15    36    1
    37    16    37    1
    38    16    38    1
    39    17    39    1
    40    17    40    1
    41    18    41    1
    42    18    42    1
    43    19    43    1
    44    19    44    1
    45    19    45    1
