@<TRIPOS>MOLECULE
*****
 46 46 0 0 0
SMALL
GASTEIGER

@<TRIPOS>ATOM
      1 C           0.9292   -0.1226    0.2324 C.3     1  UNL1       -0.0463
      2 C           2.4615   -0.0060    0.1279 C.3     1  UNL1        0.0244
      3 C           2.9614    1.4003    0.5294 C.3     1  UNL1       -0.0094
      4 C           2.5668    2.5236   -0.3962 C.ar    1  UNL1       -0.0456
      5 C           3.0778    3.8006   -0.1469 C.ar    1  UNL1       -0.0585
      6 C           2.6337    4.8899   -0.8955 C.ar    1  UNL1       -0.0615
      7 C           1.6989    4.7131   -1.9149 C.ar    1  UNL1       -0.0617
      8 C           1.2101    3.4485   -2.1944 C.ar    1  UNL1       -0.0615
      9 C           1.6871    2.3631   -1.4760 C.ar    1  UNL1       -0.0585
     10 N           3.0530   -1.0588    0.9731 N.am    1  UNL1       -0.3078
     11 C           4.4181   -1.2080    1.0769 C.2     1  UNL1        0.2614
     12 O           5.2303   -0.5598    0.4183 O.2     1  UNL1       -0.2696
     13 C           4.8847   -2.3171    2.0232 C.3     1  UNL1        0.0532
     14 N           4.3732   -3.6454    1.5406 N.4     1  UNL1        0.2273
     15 C           6.4204   -2.3591    2.0627 C.3     1  UNL1       -0.0009
     16 C           6.9707   -3.4465    2.9774 C.3     1  UNL1       -0.0427
     17 C           8.4960   -3.4482    2.9825 C.3     1  UNL1       -0.0124
     18 C           9.0044   -4.5565    3.8915 C.3     1  UNL1       -0.0354
     19 N          10.4766   -4.5548    3.8841 N.4     1  UNL1        0.2185
     20 H           0.3642    0.6229   -0.3272 H       1  UNL1        0.0248
     21 H           0.6013   -0.0053    1.2689 H       1  UNL1        0.0248
     22 H           0.5954   -1.0945   -0.1419 H       1  UNL1        0.0248
     23 H           2.7940   -0.2184   -0.8971 H       1  UNL1        0.0499
     24 H           4.0556    1.4201    0.5896 H       1  UNL1        0.0331
     25 H           2.6088    1.6206    1.5474 H       1  UNL1        0.0331
     26 H           3.8335    3.9540    0.6213 H       1  UNL1        0.0620
     27 H           3.0088    5.8850   -0.6771 H       1  UNL1        0.0618
     28 H           1.3683    5.5561   -2.5126 H       1  UNL1        0.0618
     29 H           0.4646    3.2905   -2.9691 H       1  UNL1        0.0618
     30 H           1.3338    1.3940   -1.8061 H       1  UNL1        0.0620
     31 H           2.3997   -1.5511    1.5691 H       1  UNL1        0.1492
     32 H           4.4715   -2.1544    3.0251 H       1  UNL1        0.0948
     33 H           4.7127   -3.8228    0.5832 H       1  UNL1        0.2002
     34 H           3.3471   -3.6517    1.4868 H       1  UNL1        0.2002
     35 H           4.6467   -4.4313    2.1386 H       1  UNL1        0.2002
     36 H           6.7999   -1.3833    2.3979 H       1  UNL1        0.0325
     37 H           6.8160   -2.5044    1.0478 H       1  UNL1        0.0325
     38 H           6.6317   -4.4318    2.6423 H       1  UNL1        0.0269
     39 H           6.5906   -3.2943    3.9941 H       1  UNL1        0.0269
     40 H           8.8691   -2.4739    3.3200 H       1  UNL1        0.0317
     41 H           8.8659   -3.6000    1.9601 H       1  UNL1        0.0317
     42 H           8.6760   -5.5413    3.5434 H       1  UNL1        0.0813
     43 H           8.6781   -4.4083    4.9254 H       1  UNL1        0.0813
     44 H          10.8645   -4.7185    2.9444 H       1  UNL1        0.1994
     45 H          10.8521   -5.2941    4.4952 H       1  UNL1        0.1994
     46 H          10.8636   -3.6632    4.2245 H       1  UNL1        0.1994
@<TRIPOS>UNITY_ATOM_ATTR
14 1
charge 1
19 1
charge 1
@<TRIPOS>BOND
     1     1     2    1
     2     2     3    1
     3     3     4    1
     4     4     5   ar
     5     5     6   ar
     6     6     7   ar
     7     7     8   ar
     8     8     9   ar
     9     4     9   ar
    10     2    10    1
    11    10    11   am
    12    11    12    2
    13    11    13    1
    14    13    14    1
    15    13    15    1
    16    15    16    1
    17    16    17    1
    18    17    18    1
    19    18    19    1
    20     1    20    1
    21     1    21    1
    22     1    22    1
    23     2    23    1
    24     3    24    1
    25     3    25    1
    26     5    26    1
    27     6    27    1
    28     7    28    1
    29     8    29    1
    30     9    30    1
    31    10    31    1
    32    13    32    1
    33    14    33    1
    34    14    34    1
    35    14    35    1
    36    15    36    1
    37    15    37    1
    38    16    38    1
    39    16    39    1
    40    17    40    1
    41    17    41    1
    42    18    42    1
    43    18    43    1
    44    19    44    1
    45    19    45    1
    46    19    46    1
