@<TRIPOS>MOLECULE
*****
 46 46 0 0 0
SMALL
GASTEIGER

@<TRIPOS>ATOM
      1 C           0.9955    0.2636    0.0269 C.3     1  UNL1       -0.0463
      2 C           2.5092   -0.0008    0.0291 C.3     1  UNL1        0.0244
      3 C           2.9519   -1.0052   -1.0671 C.3     1  UNL1       -0.0094
      4 C           2.5480   -2.4463   -0.8428 C.ar    1  UNL1       -0.0456
      5 C           1.5237   -2.8401    0.0279 C.ar    1  UNL1       -0.0585
      6 C           1.2111   -4.1659    0.2758 C.ar    1  UNL1       -0.0615
      7 C           1.9069   -5.1551   -0.3832 C.ar    1  UNL1       -0.0617
      8 C           2.9309   -4.8061   -1.2630 C.ar    1  UNL1       -0.0615
      9 C           3.2497   -3.4632   -1.4987 C.ar    1  UNL1       -0.0585
     10 N           3.1401    1.3242   -0.1452 N.am    1  UNL1       -0.3078
     11 C           4.5080    1.4926   -0.1524 C.2     1  UNL1        0.2614
     12 O           5.3083    0.6003    0.0600 O.2     1  UNL1       -0.2696
     13 C           4.9651    2.9423   -0.3765 C.3     1  UNL1        0.0532
     14 N           4.4489    3.8249    0.7271 N.4     1  UNL1        0.2273
     15 C           6.4982    3.0027   -0.3873 C.3     1  UNL1       -0.0009
     16 C           7.0443    4.4086   -0.6017 C.3     1  UNL1       -0.0427
     17 C           8.5691    4.4131   -0.6052 C.3     1  UNL1       -0.0124
     18 C           9.0766    5.8325   -0.8038 C.3     1  UNL1       -0.0354
     19 N          10.5486    5.8270   -0.7982 N.4     1  UNL1        0.2185
     20 H           0.3388   -0.5806    0.1927 H       1  UNL1        0.0248
     21 H           0.6844    0.6633   -0.9415 H       1  UNL1        0.0248
     22 H           0.7351    0.9688    0.8208 H       1  UNL1        0.0248
     23 H           2.8435   -0.3769    1.0060 H       1  UNL1        0.0499
     24 H           4.0498   -1.0058   -1.1222 H       1  UNL1        0.0331
     25 H           2.6194   -0.6539   -2.0530 H       1  UNL1        0.0331
     26 H           0.9170   -2.1684    0.6019 H       1  UNL1        0.0620
     27 H           0.4325   -4.3926    0.9991 H       1  UNL1        0.0618
     28 H           1.6458   -6.1914   -0.2005 H       1  UNL1        0.0618
     29 H           3.4937   -5.5919   -1.7569 H       1  UNL1        0.0618
     30 H           4.0664   -3.2274   -2.1791 H       1  UNL1        0.0620
     31 H           2.5020    2.0685   -0.3906 H       1  UNL1        0.1492
     32 H           4.5509    3.3266   -1.3156 H       1  UNL1        0.0948
     33 H           4.7867    3.4794    1.6380 H       1  UNL1        0.2002
     34 H           3.4226    3.8035    0.7751 H       1  UNL1        0.2002
     35 H           4.7214    4.8080    0.6266 H       1  UNL1        0.2002
     36 H           6.8785    2.3458   -1.1823 H       1  UNL1        0.0325
     37 H           6.8934    2.5987    0.5548 H       1  UNL1        0.0325
     38 H           6.7045    5.0747    0.1977 H       1  UNL1        0.0269
     39 H           6.6634    4.8080   -1.5488 H       1  UNL1        0.0269
     40 H           8.9420    3.7572   -1.4011 H       1  UNL1        0.0317
     41 H           8.9388    4.0098    0.3465 H       1  UNL1        0.0317
     42 H           8.7480    6.4915    0.0066 H       1  UNL1        0.0813
     43 H           8.7500    6.2444   -1.7634 H       1  UNL1        0.0813
     44 H          10.9363    5.4769    0.0892 H       1  UNL1        0.1994
     45 H          10.9241    6.7763   -0.9347 H       1  UNL1        0.1994
     46 H          10.9354    5.2431   -1.5534 H       1  UNL1        0.1994
@<TRIPOS>UNITY_ATOM_ATTR
14 1
charge 1
19 1
charge 1
@<TRIPOS>BOND
     1     1     2    1
     2     2     3    1
     3     3     4    1
     4     4     5   ar
     5     5     6   ar
     6     6     7   ar
     7     7     8   ar
     8     8     9   ar
     9     4     9   ar
    10     2    10    1
    11    10    11   am
    12    11    12    2
    13    11    13    1
    14    13    14    1
    15    13    15    1
    16    15    16    1
    17    16    17    1
    18    17    18    1
    19    18    19    1
    20     1    20    1
    21     1    21    1
    22     1    22    1
    23     2    23    1
    24     3    24    1
    25     3    25    1
    26     5    26    1
    27     6    27    1
    28     7    28    1
    29     8    29    1
    30     9    30    1
    31    10    31    1
    32    13    32    1
    33    14    33    1
    34    14    34    1
    35    14    35    1
    36    15    36    1
    37    15    37    1
    38    16    38    1
    39    16    39    1
    40    17    40    1
    41    17    41    1
    42    18    42    1
    43    18    43    1
    44    19    44    1
    45    19    45    1
    46    19    46    1
