@<TRIPOS>MOLECULE
*****
 45 45 0 0 0
SMALL
GASTEIGER

@<TRIPOS>ATOM
      1 C           0.9284    0.0919    0.0549 C.3     1  UNL1       -0.0463
      2 C           2.4598    0.1243    0.0043 C.3     1  UNL1        0.0244
      3 C           2.9453    0.5823   -1.3958 C.3     1  UNL1       -0.0094
      4 C           2.5278   -0.3798   -2.4729 C.ar    1  UNL1       -0.0456
      5 C           1.6651    0.0079   -3.5029 C.ar    1  UNL1       -0.0585
      6 C           1.2155   -0.9406   -4.4204 C.ar    1  UNL1       -0.0615
      7 C           1.6806   -2.2547   -4.3564 C.ar    1  UNL1       -0.0617
      8 C           2.5555   -2.6402   -3.3453 C.ar    1  UNL1       -0.0615
      9 C           2.9750   -1.7071   -2.4065 C.ar    1  UNL1       -0.0585
     10 N           3.0025    0.9799    1.0704 N.am    1  UNL1       -0.3078
     11 C           4.3728    1.0853    1.2292 C.2     1  UNL1        0.2614
     12 O           5.1718    0.4024    0.5881 O.2     1  UNL1       -0.2696
     13 C           4.8523    2.0510    2.3214 C.3     1  UNL1        0.0532
     14 N           4.3456    1.5953    3.6608 N.4     1  UNL1        0.2273
     15 C           6.3857    2.0886    2.3622 C.3     1  UNL1       -0.0011
     16 C           6.9345    3.0223    3.4351 C.3     1  UNL1       -0.0463
     17 C           8.4583    3.0234    3.4356 C.3     1  UNL1       -0.0404
     18 C           8.9776    3.9497    4.5299 C.3     1  UNL1       -0.0069
     19 N          10.4259    3.9485    4.5202 N.3     1  UNL1       -0.3300
     20 H           0.5180   -0.5943   -0.6946 H       1  UNL1        0.0248
     21 H           0.5117    1.0861   -0.1383 H       1  UNL1        0.0248
     22 H           0.5680   -0.2445    1.0314 H       1  UNL1        0.0248
     23 H           2.8279   -0.8866    0.2235 H       1  UNL1        0.0499
     24 H           4.0375    0.6471   -1.4436 H       1  UNL1        0.0331
     25 H           2.5833    1.5982   -1.5978 H       1  UNL1        0.0331
     26 H           1.3281    1.0381   -3.5948 H       1  UNL1        0.0620
     27 H           0.4974   -0.6599   -5.1867 H       1  UNL1        0.0618
     28 H           1.3667   -2.9795   -5.1021 H       1  UNL1        0.0618
     29 H           2.9071   -3.6658   -3.2803 H       1  UNL1        0.0618
     30 H           3.6502   -2.0210   -1.6133 H       1  UNL1        0.0620
     31 H           2.3411    1.5739    1.5533 H       1  UNL1        0.1492
     32 H           4.4389    3.0498    2.1423 H       1  UNL1        0.0948
     33 H           4.7038    0.6498    3.8588 H       1  UNL1        0.2002
     34 H           3.3220    1.5447    3.6829 H       1  UNL1        0.2002
     35 H           4.6436    2.2144    4.4229 H       1  UNL1        0.2002
     36 H           6.7656    2.4061    1.3812 H       1  UNL1        0.0325
     37 H           6.7798    1.0760    2.5263 H       1  UNL1        0.0325
     38 H           6.5980    2.7056    4.4274 H       1  UNL1        0.0268
     39 H           6.5554    4.0368    3.2662 H       1  UNL1        0.0268
     40 H           8.8290    3.3449    2.4546 H       1  UNL1        0.0277
     41 H           8.8238    2.0016    3.6029 H       1  UNL1        0.0277
     42 H           8.6108    3.6218    5.5093 H       1  UNL1        0.0422
     43 H           8.6094    4.9674    4.3613 H       1  UNL1        0.0422
     44 H          10.7877    3.0159    4.7172 H       1  UNL1        0.1182
     45 H          10.7809    4.5540    5.2601 H       1  UNL1        0.1182
@<TRIPOS>UNITY_ATOM_ATTR
14 1
charge 1
@<TRIPOS>BOND
     1     1     2    1
     2     2     3    1
     3     3     4    1
     4     4     5   ar
     5     5     6   ar
     6     6     7   ar
     7     7     8   ar
     8     8     9   ar
     9     4     9   ar
    10     2    10    1
    11    10    11   am
    12    11    12    2
    13    11    13    1
    14    13    14    1
    15    13    15    1
    16    15    16    1
    17    16    17    1
    18    17    18    1
    19    18    19    1
    20     1    20    1
    21     1    21    1
    22     1    22    1
    23     2    23    1
    24     3    24    1
    25     3    25    1
    26     5    26    1
    27     6    27    1
    28     7    28    1
    29     8    29    1
    30     9    30    1
    31    10    31    1
    32    13    32    1
    33    14    33    1
    34    14    34    1
    35    14    35    1
    36    15    36    1
    37    15    37    1
    38    16    38    1
    39    16    39    1
    40    17    40    1
    41    17    41    1
    42    18    42    1
    43    18    43    1
    44    19    44    1
    45    19    45    1
