@<TRIPOS>MOLECULE
*****
 45 45 0 0 0
SMALL
GASTEIGER

@<TRIPOS>ATOM
      1 C           0.9231    0.1648   -0.0625 C.3     1  UNL1       -0.0463
      2 C           2.4545    0.1085   -0.0425 C.3     1  UNL1        0.0243
      3 C           2.9185   -1.3599    0.0151 C.3     1  UNL1       -0.0094
      4 C           2.5165   -2.1143    1.2567 C.ar    1  UNL1       -0.0456
      5 C           2.2082   -1.4674    2.4640 C.ar    1  UNL1       -0.0585
      6 C           2.0308   -2.1922    3.6338 C.ar    1  UNL1       -0.0615
      7 C           2.1065   -3.5787    3.5993 C.ar    1  UNL1       -0.0617
      8 C           2.3721   -4.2382    2.3993 C.ar    1  UNL1       -0.0615
      9 C           2.5788   -3.5104    1.2311 C.ar    1  UNL1       -0.0585
     10 N           3.0252    0.8006   -1.1957 N.am    1  UNL1       -0.3111
     11 C           4.3913    0.9513   -1.3200 C.2     1  UNL1        0.2301
     12 O           5.1946    0.5224   -0.4869 O.2     1  UNL1       -0.2741
     13 C           4.8584    1.6902   -2.5814 C.3     1  UNL1        0.0823
     14 N           4.3614    3.0789   -2.5716 N.3     1  UNL1       -0.3199
     15 C           6.3945    1.6959   -2.6224 C.3     1  UNL1       -0.0291
     16 C           6.9387    2.4242   -3.8433 C.3     1  UNL1       -0.0464
     17 C           8.4609    2.4268   -3.8452 C.3     1  UNL1       -0.0126
     18 C           8.9580    3.1762   -5.0663 C.3     1  UNL1       -0.0354
     19 N          10.4351    3.1744   -5.0605 N.4     1  UNL1        0.2185
     20 H           0.4776   -0.3425    0.8001 H       1  UNL1        0.0248
     21 H           0.5285   -0.3276   -0.9568 H       1  UNL1        0.0248
     22 H           0.5644    1.1967   -0.0419 H       1  UNL1        0.0248
     23 H           2.8306    0.6523    0.8333 H       1  UNL1        0.0499
     24 H           4.0123   -1.4223   -0.0162 H       1  UNL1        0.0331
     25 H           2.5649   -1.8806   -0.8853 H       1  UNL1        0.0331
     26 H           2.1043   -0.3881    2.5290 H       1  UNL1        0.0620
     27 H           1.8575   -1.6656    4.5679 H       1  UNL1        0.0618
     28 H           1.9628   -4.1450    4.5134 H       1  UNL1        0.0618
     29 H           2.4481   -5.3208    2.3788 H       1  UNL1        0.0618
     30 H           2.8142   -4.0321    0.3057 H       1  UNL1        0.0620
     31 H           2.4016    1.2035   -1.8829 H       1  UNL1        0.1490
     32 H           4.4696    1.1643   -3.4615 H       1  UNL1        0.0554
     33 H           4.6844    3.5294   -1.7121 H       1  UNL1        0.1189
     34 H           3.3451    3.0856   -2.5154 H       1  UNL1        0.1189
     35 H           6.7652    0.6614   -2.6221 H       1  UNL1        0.0285
     36 H           6.7951    2.1624   -1.7111 H       1  UNL1        0.0285
     37 H           6.5863    3.4620   -3.8526 H       1  UNL1        0.0268
     38 H           6.5635    1.9429   -4.7540 H       1  UNL1        0.0268
     39 H           8.8376    1.3966   -3.8474 H       1  UNL1        0.0317
     40 H           8.8339    2.9047   -2.9301 H       1  UNL1        0.0317
     41 H           8.6362    4.2221   -5.0621 H       1  UNL1        0.0813
     42 H           8.6373    2.6958   -5.9955 H       1  UNL1        0.0813
     43 H          10.8066    3.6357   -4.2196 H       1  UNL1        0.1994
     44 H          10.8059    3.6735   -5.8787 H       1  UNL1        0.1994
     45 H          10.8092    2.2167   -5.0828 H       1  UNL1        0.1994
@<TRIPOS>UNITY_ATOM_ATTR
19 1
charge 1
@<TRIPOS>BOND
     1     1     2    1
     2     2     3    1
     3     3     4    1
     4     4     5   ar
     5     5     6   ar
     6     6     7   ar
     7     7     8   ar
     8     8     9   ar
     9     4     9   ar
    10     2    10    1
    11    10    11   am
    12    11    12    2
    13    11    13    1
    14    13    14    1
    15    13    15    1
    16    15    16    1
    17    16    17    1
    18    17    18    1
    19    18    19    1
    20     1    20    1
    21     1    21    1
    22     1    22    1
    23     2    23    1
    24     3    24    1
    25     3    25    1
    26     5    26    1
    27     6    27    1
    28     7    28    1
    29     8    29    1
    30     9    30    1
    31    10    31    1
    32    13    32    1
    33    14    33    1
    34    14    34    1
    35    15    35    1
    36    15    36    1
    37    16    37    1
    38    16    38    1
    39    17    39    1
    40    17    40    1
    41    18    41    1
    42    18    42    1
    43    19    43    1
    44    19    44    1
    45    19    45    1
