@<TRIPOS>MOLECULE
*****
 44 44 0 0 0
SMALL
GASTEIGER

@<TRIPOS>ATOM
      1 C           1.0148    0.1456   -0.0123 C.3     1  UNL1       -0.0463
      2 C           2.5461    0.0253    0.0156 C.3     1  UNL1        0.0243
      3 C           3.0127   -1.1537   -0.8637 C.3     1  UNL1       -0.0094
      4 C           2.6136   -2.5269   -0.3769 C.ar    1  UNL1       -0.0456
      5 C           1.9533   -2.7528    0.8414 C.ar    1  UNL1       -0.0585
      6 C           1.6812   -4.0370    1.2891 C.ar    1  UNL1       -0.0615
      7 C           2.0722   -5.1237    0.5219 C.ar    1  UNL1       -0.0617
      8 C           2.7439   -4.9230   -0.6840 C.ar    1  UNL1       -0.0615
      9 C           3.0052   -3.6320   -1.1387 C.ar    1  UNL1       -0.0585
     10 N           3.1448    1.2885   -0.4144 N.am    1  UNL1       -0.3111
     11 C           4.5127    1.4779   -0.4114 C.2     1  UNL1        0.2301
     12 O           5.3035    0.6058   -0.0460 O.2     1  UNL1       -0.2741
     13 C           4.9777    2.8595   -0.9057 C.3     1  UNL1        0.0823
     14 N           4.4609    3.9130   -0.0103 N.3     1  UNL1       -0.3199
     15 C           6.5123    2.8964   -0.9339 C.3     1  UNL1       -0.0292
     16 C           7.0576    4.2387   -1.4059 C.3     1  UNL1       -0.0501
     17 C           8.5825    4.2366   -1.4061 C.3     1  UNL1       -0.0406
     18 C           9.1053    5.5916   -1.8662 C.3     1  UNL1       -0.0069
     19 N          10.5608    5.5865   -1.8732 N.3     1  UNL1       -0.3300
     20 H           0.4901   -0.7736    0.2606 H       1  UNL1        0.0248
     21 H           0.6660    0.3963   -1.0177 H       1  UNL1        0.0248
     22 H           0.6749    0.9133    0.6876 H       1  UNL1        0.0248
     23 H           2.8945   -0.1372    1.0451 H       1  UNL1        0.0499
     24 H           4.1075   -1.1732   -0.9198 H       1  UNL1        0.0331
     25 H           2.6658   -0.9949   -1.8940 H       1  UNL1        0.0331
     26 H           1.6395   -1.9434    1.4926 H       1  UNL1        0.0620
     27 H           1.1909   -4.1713    2.2488 H       1  UNL1        0.0618
     28 H           1.8674   -6.1276    0.8767 H       1  UNL1        0.0618
     29 H           3.0888   -5.7749   -1.2610 H       1  UNL1        0.0618
     30 H           3.5479   -3.4876   -2.0714 H       1  UNL1        0.0620
     31 H           2.5381    2.0499   -0.6881 H       1  UNL1        0.1490
     32 H           4.5882    3.0184   -1.9186 H       1  UNL1        0.0554
     33 H           4.8151    3.7330    0.9309 H       1  UNL1        0.1189
     34 H           3.4487    3.8721    0.0471 H       1  UNL1        0.1189
     35 H           6.8827    2.1022   -1.5971 H       1  UNL1        0.0285
     36 H           6.9124    2.6697    0.0642 H       1  UNL1        0.0285
     37 H           6.7052    5.0413   -0.7480 H       1  UNL1        0.0266
     38 H           6.6825    4.4525   -2.4135 H       1  UNL1        0.0266
     39 H           8.9517    3.4425   -2.0670 H       1  UNL1        0.0277
     40 H           8.9493    4.0140   -0.3955 H       1  UNL1        0.0277
     41 H           8.7434    6.3821   -1.1989 H       1  UNL1        0.0422
     42 H           8.7376    5.8121   -2.8740 H       1  UNL1        0.0422
     43 H          10.9031    5.4180   -0.9280 H       1  UNL1        0.1182
     44 H          10.8983    6.5087   -2.1424 H       1  UNL1        0.1182
@<TRIPOS>BOND
     1     1     2    1
     2     2     3    1
     3     3     4    1
     4     4     5   ar
     5     5     6   ar
     6     6     7   ar
     7     7     8   ar
     8     8     9   ar
     9     4     9   ar
    10     2    10    1
    11    10    11   am
    12    11    12    2
    13    11    13    1
    14    13    14    1
    15    13    15    1
    16    15    16    1
    17    16    17    1
    18    17    18    1
    19    18    19    1
    20     1    20    1
    21     1    21    1
    22     1    22    1
    23     2    23    1
    24     3    24    1
    25     3    25    1
    26     5    26    1
    27     6    27    1
    28     7    28    1
    29     8    29    1
    30     9    30    1
    31    10    31    1
    32    13    32    1
    33    14    33    1
    34    14    34    1
    35    15    35    1
    36    15    36    1
    37    16    37    1
    38    16    38    1
    39    17    39    1
    40    17    40    1
    41    18    41    1
    42    18    42    1
    43    19    43    1
    44    19    44    1
