@<TRIPOS>MOLECULE
*****
 44 44 0 0 0
SMALL
GASTEIGER

@<TRIPOS>ATOM
      1 C           1.0681   -0.0066   -0.2011 C.3     1  UNL1       -0.0788
      2 C           2.6111   -0.0345   -0.1880 C.3     1  UNL1       -0.1205
      3 C           3.0527   -1.3826    0.4534 C.3     1  UNL1       -0.0417
      4 C           2.5993   -1.6082    1.8849 C.ar    1  UNL1       -0.0485
      5 C           2.3326   -0.5447    2.7621 C.ar    1  UNL1       -0.0586
      6 C           2.0424   -0.7720    4.1024 C.ar    1  UNL1       -0.0615
      7 C           1.9614   -2.0754    4.5758 C.ar    1  UNL1       -0.0617
      8 C           2.2059   -3.1466    3.7163 C.ar    1  UNL1       -0.0615
      9 C           2.5301   -2.9155    2.3790 C.ar    1  UNL1       -0.0586
     10 N           3.1476    0.1651   -1.5707 N.am    1  UNL1       -0.6353
     11 C           4.4860    0.2024   -1.6259 C.2     1  UNL1        0.0949
     12 O           5.2934    0.1802   -0.6947 O.2     1  UNL1       -0.3126
     13 C           4.9820    0.3804   -3.0620 C.3     1  UNL1        0.0172
     14 N           4.4595    1.6832   -3.5698 N.4     1  UNL1        0.2250
     15 C           6.5132    0.4043   -3.1216 C.3     1  UNL1       -0.0042
     16 C           7.0564    0.6139   -4.5316 C.3     1  UNL1       -0.0464
     17 C           8.5811    0.6141   -4.5359 C.3     1  UNL1       -0.0404
     18 C           9.1001    0.8375   -5.9518 C.3     1  UNL1       -0.0069
     19 N          10.5518    0.8331   -5.9513 N.3     1  UNL1       -0.3300
     20 H           0.6417   -0.1458    0.8002 H       1  UNL1        0.0218
     21 H           0.6620   -0.8154   -0.8178 H       1  UNL1        0.0218
     22 H           0.6831    0.9491   -0.5637 H       1  UNL1        0.0218
     23 H           2.9527    0.7956    0.4455 H       1  UNL1        0.0091
     24 H           4.1444   -1.4695    0.4817 H       1  UNL1        0.0301
     25 H           2.7000   -2.2086   -0.1803 H       1  UNL1        0.0301
     26 H           2.3299    0.4827    2.4096 H       1  UNL1        0.0620
     27 H           1.8940    0.0744    4.7658 H       1  UNL1        0.0618
     28 H           1.7091   -2.2532    5.6156 H       1  UNL1        0.0618
     29 H           2.1643   -4.1641    4.0913 H       1  UNL1        0.0618
     30 H           2.7362   -3.7555    1.7199 H       1  UNL1        0.0620
     31 H           4.5796   -0.4057   -3.7112 H       1  UNL1        0.0916
     32 H           4.7856    2.4227   -2.9399 H       1  UNL1        0.2001
     33 H           3.4384    1.6308   -3.4468 H       1  UNL1        0.2001
     34 H           4.7051    1.8747   -4.5392 H       1  UNL1        0.2001
     35 H           6.8986   -0.5444   -2.7248 H       1  UNL1        0.0324
     36 H           6.9035    1.1924   -2.4628 H       1  UNL1        0.0324
     37 H           6.7147    1.5725   -4.9360 H       1  UNL1        0.0268
     38 H           6.6775   -0.1752   -5.1916 H       1  UNL1        0.0268
     39 H           8.9525   -0.3390   -4.1399 H       1  UNL1        0.0277
     40 H           8.9473    1.4079   -3.8716 H       1  UNL1        0.0277
     41 H           8.7336    1.7940   -6.3420 H       1  UNL1        0.0422
     42 H           8.7320    0.0461   -6.6135 H       1  UNL1        0.0422
     43 H          10.9046    1.5876   -5.3637 H       1  UNL1        0.1182
     44 H          10.8981    1.0109   -6.8925 H       1  UNL1        0.1182
@<TRIPOS>UNITY_ATOM_ATTR
10 1
charge -1
14 1
charge 1
@<TRIPOS>BOND
     1     1     2    1
     2     2     3    1
     3     3     4    1
     4     4     5   ar
     5     5     6   ar
     6     6     7   ar
     7     7     8   ar
     8     8     9   ar
     9     4     9   ar
    10     2    10    1
    11    10    11    1
    12    11    12    2
    13    11    13    1
    14    13    14    1
    15    13    15    1
    16    15    16    1
    17    16    17    1
    18    17    18    1
    19    18    19    1
    20     1    20    1
    21     1    21    1
    22     1    22    1
    23     2    23    1
    24     3    24    1
    25     3    25    1
    26     5    26    1
    27     6    27    1
    28     7    28    1
    29     8    29    1
    30     9    30    1
    31    13    31    1
    32    14    32    1
    33    14    33    1
    34    14    34    1
    35    15    35    1
    36    15    36    1
    37    16    37    1
    38    16    38    1
    39    17    39    1
    40    17    40    1
    41    18    41    1
    42    18    42    1
    43    19    43    1
    44    19    44    1
