@<TRIPOS>MOLECULE
*****
 43 43 0 0 0
SMALL
GASTEIGER

@<TRIPOS>ATOM
      1 C           1.0807    0.1495    0.0196 C.3     1  UNL1       -0.0788
      2 C           2.6206    0.1413   -0.0597 C.3     1  UNL1       -0.1206
      3 C           3.0615   -0.2464   -1.5038 C.3     1  UNL1       -0.0417
      4 C           2.6196   -1.6395   -1.9074 C.ar    1  UNL1       -0.0485
      5 C           1.3503   -1.8749   -2.4527 C.ar    1  UNL1       -0.0586
      6 C           0.8893   -3.1803   -2.6205 C.ar    1  UNL1       -0.0615
      7 C           1.7361   -4.2563   -2.3593 C.ar    1  UNL1       -0.0617
      8 C           3.0214   -4.0296   -1.8693 C.ar    1  UNL1       -0.0615
      9 C           3.4533   -2.7277   -1.6262 C.ar    1  UNL1       -0.0586
     10 N           3.1357    1.4834    0.3424 N.am    1  UNL1       -0.6386
     11 C           4.4738    1.5639    0.4400 C.2     1  UNL1        0.0635
     12 O           5.2920    0.6561    0.2552 O.2     1  UNL1       -0.3168
     13 C           4.9624    2.9938    0.8103 C.3     1  UNL1        0.0461
     14 N           4.4579    3.3567    2.1591 N.3     1  UNL1       -0.3226
     15 C           6.5002    3.0428    0.8124 C.3     1  UNL1       -0.0324
     16 C           7.0483    4.4144    1.1984 C.3     1  UNL1       -0.0502
     17 C           8.5743    4.4155    1.1982 C.3     1  UNL1       -0.0406
     18 C           9.0966    5.7901    1.5983 C.3     1  UNL1       -0.0069
     19 N          10.5556    5.7969    1.5937 N.3     1  UNL1       -0.3300
     20 H           0.6641   -0.8418   -0.1897 H       1  UNL1        0.0218
     21 H           0.6521    0.8485   -0.7084 H       1  UNL1        0.0218
     22 H           0.7176    0.4199    1.0147 H       1  UNL1        0.0218
     23 H           2.9639   -0.6325    0.6439 H       1  UNL1        0.0091
     24 H           4.1533   -0.2217   -1.5974 H       1  UNL1        0.0301
     25 H           2.6977    0.4912   -2.2296 H       1  UNL1        0.0301
     26 H           0.6944   -1.0365   -2.6758 H       1  UNL1        0.0620
     27 H          -0.1388   -3.3542   -2.9234 H       1  UNL1        0.0618
     28 H           1.3909   -5.2711   -2.5264 H       1  UNL1        0.0618
     29 H           3.6793   -4.8612   -1.6397 H       1  UNL1        0.0618
     30 H           4.4341   -2.5463   -1.1902 H       1  UNL1        0.0620
     31 H           4.5805    3.7106    0.0725 H       1  UNL1        0.0521
     32 H           4.7701    2.6031    2.7722 H       1  UNL1        0.1188
     33 H           3.4475    3.2062    2.0902 H       1  UNL1        0.1188
     34 H           6.8721    2.7736   -0.1855 H       1  UNL1        0.0284
     35 H           6.9002    2.2861    1.5017 H       1  UNL1        0.0284
     36 H           6.6974    4.6948    2.1983 H       1  UNL1        0.0266
     37 H           6.6734    5.1695    0.4975 H       1  UNL1        0.0266
     38 H           8.9448    4.1450    0.2018 H       1  UNL1        0.0277
     39 H           8.9415    3.6549    1.8995 H       1  UNL1        0.0277
     40 H           8.7347    6.0542    2.5988 H       1  UNL1        0.0422
     41 H           8.7291    6.5498    0.9004 H       1  UNL1        0.0422
     42 H          10.8888    5.1085    2.2674 H       1  UNL1        0.1182
     43 H          10.8838    6.7047    1.9136 H       1  UNL1        0.1182
@<TRIPOS>UNITY_ATOM_ATTR
10 1
charge -1
@<TRIPOS>BOND
     1     1     2    1
     2     2     3    1
     3     3     4    1
     4     4     5   ar
     5     5     6   ar
     6     6     7   ar
     7     7     8   ar
     8     8     9   ar
     9     4     9   ar
    10     2    10    1
    11    10    11    1
    12    11    12    2
    13    11    13    1
    14    13    14    1
    15    13    15    1
    16    15    16    1
    17    16    17    1
    18    17    18    1
    19    18    19    1
    20     1    20    1
    21     1    21    1
    22     1    22    1
    23     2    23    1
    24     3    24    1
    25     3    25    1
    26     5    26    1
    27     6    27    1
    28     7    28    1
    29     8    29    1
    30     9    30    1
    31    13    31    1
    32    14    32    1
    33    14    33    1
    34    15    34    1
    35    15    35    1
    36    16    36    1
    37    16    37    1
    38    17    38    1
    39    17    39    1
    40    18    40    1
    41    18    41    1
    42    19    42    1
    43    19    43    1
