@<TRIPOS>MOLECULE
*****
 44 44 0 0 0
SMALL
GASTEIGER

@<TRIPOS>ATOM
      1 C           0.9221    0.1620   -0.0093 C.3     1  UNL1       -0.0788
      2 C           2.4662    0.1031    0.0048 C.3     1  UNL1       -0.1206
      3 C           2.9066   -1.2186   -0.6760 C.3     1  UNL1       -0.0417
      4 C           2.4980   -2.5026    0.0239 C.ar    1  UNL1       -0.0485
      5 C           2.0122   -2.5361    1.3405 C.ar    1  UNL1       -0.0586
      6 C           1.8065   -3.7394    2.0033 C.ar    1  UNL1       -0.0615
      7 C           2.0494   -4.9358    1.3417 C.ar    1  UNL1       -0.0617
      8 C           2.5099   -4.9250    0.0247 C.ar    1  UNL1       -0.0615
      9 C           2.7286   -3.7156   -0.6335 C.ar    1  UNL1       -0.0586
     10 N           3.0097    1.3091   -0.6798 N.am    1  UNL1       -0.6386
     11 C           4.3457    1.4239   -0.6545 C.2     1  UNL1        0.0635
     12 O           5.1669    0.6521   -0.1459 O.2     1  UNL1       -0.3168
     13 C           4.8359    2.6918   -1.3916 C.3     1  UNL1        0.0461
     14 N           4.3481    3.9030   -0.6860 N.3     1  UNL1       -0.3226
     15 C           6.3713    2.7186   -1.4206 C.3     1  UNL1       -0.0322
     16 C           6.9127    3.9632   -2.1102 C.3     1  UNL1       -0.0465
     17 C           8.4331    3.9678   -2.1100 C.3     1  UNL1       -0.0126
     18 C           8.9227    5.2295   -2.7894 C.3     1  UNL1       -0.0354
     19 N          10.4016    5.2264   -2.7861 N.4     1  UNL1        0.2185
     20 H           0.4540   -0.7128    0.4551 H       1  UNL1        0.0218
     21 H           0.5366    0.1906   -1.0335 H       1  UNL1        0.0218
     22 H           0.5500    1.0300    0.5406 H       1  UNL1        0.0218
     23 H           2.7987    0.0948    1.0529 H       1  UNL1        0.0091
     24 H           3.9997   -1.2713   -0.7363 H       1  UNL1        0.0301
     25 H           2.5457   -1.2298   -1.7141 H       1  UNL1        0.0301
     26 H           1.7920   -1.6205    1.8825 H       1  UNL1        0.0620
     27 H           1.4855   -3.7233    3.0399 H       1  UNL1        0.0618
     28 H           1.8886   -5.8744    1.8593 H       1  UNL1        0.0618
     29 H           2.7301   -5.8576   -0.4830 H       1  UNL1        0.0618
     30 H           3.1114   -3.7092   -1.6513 H       1  UNL1        0.0620
     31 H           4.4545    2.6844   -2.4203 H       1  UNL1        0.0521
     32 H           4.6266    3.7775    0.2890 H       1  UNL1        0.1188
     33 H           3.3318    3.7589   -0.6433 H       1  UNL1        0.1188
     34 H           6.7428    1.8248   -1.9397 H       1  UNL1        0.0284
     35 H           6.7708    2.6672   -0.3978 H       1  UNL1        0.0284
     36 H           6.5615    4.8663   -1.5975 H       1  UNL1        0.0268
     37 H           6.5377    4.0060   -3.1395 H       1  UNL1        0.0268
     38 H           8.8122    3.0796   -2.6300 H       1  UNL1        0.0317
     39 H           8.8075    3.9237   -1.0791 H       1  UNL1        0.0317
     40 H           8.6030    6.1326   -2.2609 H       1  UNL1        0.0813
     41 H           8.6041    5.2813   -3.8347 H       1  UNL1        0.0813
     42 H          10.7640    5.1980   -1.8244 H       1  UNL1        0.1994
     43 H          10.7707    6.0681   -3.2426 H       1  UNL1        0.1994
     44 H          10.7668    4.4043   -3.2833 H       1  UNL1        0.1994
@<TRIPOS>UNITY_ATOM_ATTR
10 1
charge -1
19 1
charge 1
@<TRIPOS>BOND
     1     1     2    1
     2     2     3    1
     3     3     4    1
     4     4     5   ar
     5     5     6   ar
     6     6     7   ar
     7     7     8   ar
     8     8     9   ar
     9     4     9   ar
    10     2    10    1
    11    10    11    1
    12    11    12    2
    13    11    13    1
    14    13    14    1
    15    13    15    1
    16    15    16    1
    17    16    17    1
    18    17    18    1
    19    18    19    1
    20     1    20    1
    21     1    21    1
    22     1    22    1
    23     2    23    1
    24     3    24    1
    25     3    25    1
    26     5    26    1
    27     6    27    1
    28     7    28    1
    29     8    29    1
    30     9    30    1
    31    13    31    1
    32    14    32    1
    33    14    33    1
    34    15    34    1
    35    15    35    1
    36    16    36    1
    37    16    37    1
    38    17    38    1
    39    17    39    1
    40    18    40    1
    41    18    41    1
    42    19    42    1
    43    19    43    1
    44    19    44    1
